Version 4
SHEET 1 880 680
WIRE -928 -96 -944 -96
WIRE -848 -96 -864 -96
WIRE -768 -96 -784 -96
WIRE -688 -96 -704 -96
WIRE -608 -96 -624 -96
WIRE -528 -96 -544 -96
WIRE -432 -96 -448 -96
WIRE -336 -96 -368 -96
WIRE -240 -96 -272 -96
WIRE -144 -96 -160 -96
WIRE -944 -48 -944 -96
WIRE -864 -48 -864 -96
WIRE -784 -48 -784 -96
WIRE -704 -48 -704 -96
WIRE -624 -48 -624 -96
WIRE -544 -48 -544 -96
WIRE -448 -48 -448 -96
WIRE -368 -48 -368 -96
WIRE -272 -48 -272 -96
WIRE -160 -48 -160 -96
WIRE 336 -48 176 -48
WIRE 176 -16 176 -48
WIRE -944 64 -944 32
WIRE -864 64 -864 32
WIRE -784 64 -784 32
WIRE -704 64 -704 32
WIRE -624 64 -624 32
WIRE -544 64 -544 32
WIRE -448 64 -448 32
WIRE -368 64 -368 32
WIRE -272 64 -272 32
WIRE -160 64 -160 32
WIRE 336 64 336 -48
WIRE 176 80 176 64
WIRE 80 112 64 112
WIRE 80 128 64 128
WIRE 80 144 64 144
WIRE 80 160 64 160
WIRE 80 176 64 176
WIRE 336 176 336 144
WIRE 80 192 64 192
WIRE 80 208 64 208
WIRE 80 224 64 224
WIRE 80 240 64 240
WIRE 80 256 64 256
WIRE 176 304 176 288
FLAG 336 176 0
FLAG 176 304 0
FLAG -160 64 0
FLAG -272 64 0
FLAG -368 64 0
FLAG -448 64 0
FLAG -544 64 0
FLAG -624 64 0
FLAG -704 64 0
FLAG -784 64 0
FLAG -864 64 0
FLAG -944 64 0
FLAG -144 -96 d0
IOPIN -144 -96 Out
FLAG -240 -96 d1
IOPIN -240 -96 Out
FLAG -336 -96 d2
IOPIN -336 -96 Out
FLAG -432 -96 d3
IOPIN -432 -96 Out
FLAG -528 -96 d4
IOPIN -528 -96 Out
FLAG -608 -96 d5
IOPIN -608 -96 Out
FLAG -688 -96 d6
IOPIN -688 -96 Out
FLAG -768 -96 d7
IOPIN -768 -96 Out
FLAG -848 -96 d8
IOPIN -848 -96 Out
FLAG -928 -96 d9
IOPIN -928 -96 Out
FLAG 64 112 d0
IOPIN 64 112 In
FLAG 64 128 d1
IOPIN 64 128 In
FLAG 64 144 d2
IOPIN 64 144 In
FLAG 64 160 d3
IOPIN 64 160 In
FLAG 64 176 d4
IOPIN 64 176 In
FLAG 64 192 d5
IOPIN 64 192 In
FLAG 64 208 d6
IOPIN 64 208 In
FLAG 64 224 d7
IOPIN 64 224 In
FLAG 64 240 d8
IOPIN 64 240 In
FLAG 64 256 d9
IOPIN 64 256 In
FLAG 256 176 out
IOPIN 256 176 Out
SYMBOL 10bit 224 176 R0
SYMATTR InstName X1
SYMBOL res 160 -32 R0
SYMATTR InstName R1
SYMATTR Value 1.6113k
SYMBOL voltage 336 48 R0
WINDOW 123 0 0 Left 0
WINDOW 39 0 0 Left 0
SYMATTR InstName V1
SYMATTR Value 3.3
SYMBOL voltage -160 -64 R0
WINDOW 123 0 0 Left 0
WINDOW 39 0 0 Left 0
SYMATTR InstName V2
SYMATTR Value 0
SYMBOL voltage -272 -64 R0
WINDOW 123 0 0 Left 0
WINDOW 39 0 0 Left 0
SYMATTR InstName V3
SYMATTR Value 0
SYMBOL voltage -368 -64 R0
WINDOW 123 0 0 Left 0
WINDOW 39 0 0 Left 0
SYMATTR InstName V4
SYMATTR Value 0
SYMBOL voltage -448 -64 R0
WINDOW 123 0 0 Left 0
WINDOW 39 0 0 Left 0
SYMATTR InstName V5
SYMATTR Value 0
SYMBOL voltage -544 -64 R0
WINDOW 123 0 0 Left 0
WINDOW 39 0 0 Left 0
SYMATTR InstName V6
SYMATTR Value 0
SYMBOL voltage -624 -64 R0
WINDOW 123 0 0 Left 0
WINDOW 39 0 0 Left 0
SYMATTR InstName V7
SYMATTR Value 0
SYMBOL voltage -704 -64 R0
WINDOW 123 0 0 Left 0
WINDOW 39 0 0 Left 0
SYMATTR InstName V8
SYMATTR Value 0
SYMBOL voltage -784 -64 R0
WINDOW 123 0 0 Left 0
WINDOW 39 0 0 Left 0
SYMATTR InstName V9
SYMATTR Value 0
SYMBOL voltage -864 -64 R0
WINDOW 123 0 0 Left 0
WINDOW 39 0 0 Left 0
SYMATTR InstName V10
SYMATTR Value 0
SYMBOL voltage -944 -64 R0
WINDOW 123 0 0 Left 0
WINDOW 39 0 0 Left 0
SYMATTR InstName V11
SYMATTR Value 0
TEXT 144 176 Left 2 ;10bit
TEXT -984 336 Left 2 !.tran 100ms
