Version 4
SHEET 1 880 740
WIRE -320 0 -400 0
WIRE -400 16 -400 0
WIRE -320 16 -320 0
WIRE 96 32 96 0
WIRE -400 48 -480 48
WIRE -544 64 -624 64
WIRE -480 64 -480 48
WIRE -400 64 -400 48
WIRE 48 64 -224 64
WIRE 48 80 -192 80
WIRE -656 96 -736 96
WIRE -624 96 -624 64
WIRE -544 96 -544 64
WIRE -288 96 -320 96
WIRE -224 96 -224 64
WIRE -224 96 -288 96
WIRE 48 96 -176 96
WIRE 48 112 -144 112
WIRE -736 128 -736 96
WIRE -656 128 -656 96
WIRE 48 128 -112 128
WIRE -288 144 -400 144
WIRE -192 144 -192 80
WIRE -192 144 -288 144
WIRE 48 144 -80 144
WIRE 336 144 160 144
WIRE 48 160 -64 160
WIRE 48 176 -32 176
WIRE -544 192 -544 176
WIRE -288 192 -544 192
WIRE -176 192 -176 96
WIRE -176 192 -288 192
WIRE 48 192 0 192
WIRE -656 240 -656 208
WIRE -288 240 -656 240
WIRE -144 240 -144 112
WIRE -144 240 -288 240
WIRE 336 272 336 144
WIRE -288 288 -736 288
WIRE -112 288 -112 128
WIRE -112 288 -288 288
WIRE 96 288 96 224
WIRE 256 304 240 304
WIRE 288 304 256 304
WIRE 432 304 384 304
WIRE -288 336 -656 336
WIRE -80 336 -80 144
WIRE -80 336 -288 336
WIRE -656 352 -656 336
WIRE -288 368 -576 368
WIRE -64 368 -64 160
WIRE -64 368 -288 368
WIRE 240 368 240 304
WIRE -576 384 -576 368
WIRE -288 400 -496 400
WIRE -32 400 -32 176
WIRE -32 400 -288 400
WIRE -736 416 -736 368
WIRE -496 416 -496 400
WIRE 96 416 96 368
WIRE -288 432 -352 432
WIRE 0 432 0 192
WIRE 0 432 -288 432
WIRE -224 448 -224 96
WIRE 48 448 -224 448
WIRE -192 464 -192 144
WIRE 48 464 -192 464
WIRE -656 480 -656 432
WIRE -176 480 -176 192
WIRE 48 480 -176 480
WIRE 240 480 240 448
WIRE -576 496 -576 464
WIRE -144 496 -144 240
WIRE 48 496 -144 496
WIRE -112 512 -112 288
WIRE 48 512 -112 512
WIRE -496 528 -496 496
WIRE -80 528 -80 336
WIRE 48 528 -80 528
WIRE 336 528 336 336
WIRE 336 528 160 528
WIRE -352 544 -352 512
WIRE -64 544 -64 368
WIRE 48 544 -64 544
WIRE -32 560 -32 400
WIRE 48 560 -32 560
WIRE 0 576 0 432
WIRE 48 576 0 576
WIRE 96 640 96 608
FLAG -288 96 a0
FLAG -288 144 a1
FLAG -288 192 a2
FLAG -288 240 a3
FLAG -288 288 a4
FLAG -288 336 a5
FLAG -288 368 a6
FLAG -288 400 a7
FLAG -288 432 a8
FLAG 256 304 a9
FLAG 432 304 o10
FLAG 96 0 ir10
FLAG 96 640 or10
FLAG 240 480 0
FLAG -352 544 0
FLAG -496 528 0
FLAG -576 496 0
FLAG -656 480 0
FLAG -736 416 0
FLAG -736 128 0
FLAG -624 96 0
FLAG -480 64 0
FLAG -400 16 0
SYMBOL switch 384 336 R0
SYMATTR InstName X3
SYMBOL res 80 272 R0
SYMATTR InstName R1
SYMATTR Value 0.625k
SYMBOL 9bit 160 128 R0
SYMATTR InstName X1
SYMBOL 9bit 160 512 R0
SYMATTR InstName X2
SYMBOL voltage -320 112 R180
WINDOW 0 24 96 Left 2
WINDOW 3 24 16 Left 2
WINDOW 123 0 0 Left 0
WINDOW 39 0 0 Left 0
SYMATTR InstName V1
SYMATTR Value PWL(0 0 0.99 0 1 5 1.99 5 2 0 2.99 0 3 5 3.99 5 4 0)
SYMBOL voltage -400 160 R180
WINDOW 0 24 96 Left 2
WINDOW 3 24 16 Left 2
WINDOW 123 0 0 Left 0
WINDOW 39 0 0 Left 0
SYMATTR InstName V2
SYMATTR Value PWL(0 0 1.99 0 2 5 2.99 5 3 0 4 0)
SYMBOL voltage -544 80 R0
WINDOW 123 0 0 Left 0
WINDOW 39 0 0 Left 0
SYMATTR InstName V3
SYMATTR Value PWL(0 0 0.99 0 1 5 2.99 5 3 0 4 0)
SYMBOL voltage -656 112 R0
WINDOW 123 0 0 Left 0
WINDOW 39 0 0 Left 0
SYMATTR InstName V4
SYMATTR Value PWL(0 5 0.99 5 1 0 1.99 0 2 5 2.99 5 3 0 4 0)
SYMBOL voltage -352 416 R0
WINDOW 123 0 0 Left 0
WINDOW 39 0 0 Left 0
SYMATTR InstName V5
SYMATTR Value PWL(0 0 1.99 0 2 5 3.99 5 4 0)
SYMBOL voltage -496 400 R0
WINDOW 123 0 0 Left 0
WINDOW 39 0 0 Left 0
SYMATTR InstName V6
SYMATTR Value PWL(0 0 0.99 0 1 5 1.99 5 2 0 4 0)
SYMBOL voltage -576 368 R0
WINDOW 123 0 0 Left 0
WINDOW 39 0 0 Left 0
SYMATTR InstName V7
SYMATTR Value PWL(0 5 0.99 5 1 0 2.99 0 3 5 3.99 5 4 0)
SYMBOL voltage -656 336 R0
WINDOW 123 0 0 Left 0
WINDOW 39 0 0 Left 0
SYMATTR InstName V8
SYMATTR Value PWL(0 5 2.99 5 3 0 4 0)
SYMBOL voltage -736 272 R0
WINDOW 123 0 0 Left 0
WINDOW 39 0 0 Left 0
SYMATTR InstName V9
SYMATTR Value PWL(0 0 0.99 0 1 5 1.99 5 2 0 4 0)
SYMBOL voltage 240 352 R0
WINDOW 123 0 0 Left 0
WINDOW 39 0 0 Left 0
SYMATTR InstName V10
SYMATTR Value PWL(0 0 0.99 0 1 5 3.99 5 4 0)
TEXT 88 112 Left 2 ;9b
TEXT 80 472 Left 2 ;9b
